66571643
     RDKit          3D

 55 58  0  0  1  0  0  0  0  0999 V2000
    7.5621    2.5888   -0.8902 O   0  0  0  0  0  0  0  0  0  0  0  0
    7.1103    1.8863   -3.0233 O   0  0  0  0  0  0  0  0  0  0  0  0
   -2.0271    0.4042    0.6993 N   0  0  0  0  0  0  0  0  0  0  0  0
    2.3037   -2.3849    0.3612 N   0  0  0  0  0  0  0  0  0  0  0  0
   -3.3988    0.5304    0.2084 C   0  0  1  0  0  0  0  0  0  0  0  0
   -4.1944    1.5920    0.9578 C   0  0  1  0  0  0  0  0  0  0  0  0
   -3.6815    1.8765   -0.4510 C   0  0  0  0  0  0  0  0  0  0  0  0
    0.2969   -0.1639    0.0537 C   0  0  0  0  0  0  0  0  0  0  0  0
   -1.1972   -0.2424   -0.3246 C   0  0  0  0  0  0  0  0  0  0  0  0
   -5.6896    1.3692    1.1041 C   0  0  0  0  0  0  0  0  0  0  0  0
    1.1947   -0.6760   -1.1043 C   0  0  0  0  0  0  0  0  0  0  0  0
    0.5852   -0.9125    1.3812 C   0  0  0  0  0  0  0  0  0  0  0  0
    1.5778   -2.1504   -0.9123 C   0  0  0  0  0  0  0  0  0  0  0  0
    2.0364   -1.3976    1.4329 C   0  0  0  0  0  0  0  0  0  0  0  0
   -6.4748    0.6770    0.1547 C   0  0  0  0  0  0  0  0  0  0  0  0
   -6.3186    1.8823    2.2518 C   0  0  0  0  0  0  0  0  0  0  0  0
    3.7385   -2.7138    0.2019 C   0  0  0  0  0  0  0  0  0  0  0  0
   -7.8480    0.5092    0.3588 C   0  0  0  0  0  0  0  0  0  0  0  0
   -7.6919    1.7111    2.4499 C   0  0  0  0  0  0  0  0  0  0  0  0
    4.5766   -1.5638   -0.3207 C   0  0  0  0  0  0  0  0  0  0  0  0
   -8.4559    1.0251    1.5045 C   0  0  0  0  0  0  0  0  0  0  0  0
    5.2142   -0.6882    0.5730 C   0  0  0  0  0  0  0  0  0  0  0  0
    4.7582   -1.3779   -1.7007 C   0  0  0  0  0  0  0  0  0  0  0  0
    5.9836    0.3770    0.0971 C   0  0  0  0  0  0  0  0  0  0  0  0
    5.5281   -0.3136   -2.1780 C   0  0  0  0  0  0  0  0  0  0  0  0
    6.1443    0.5787   -1.2837 C   0  0  0  0  0  0  0  0  0  0  0  0
    6.9576    1.7087   -1.7843 C   0  0  0  0  0  0  0  0  0  0  0  0
    8.1208    3.3658   -1.2224 H   0  0  0  0  0  0  0  0  0  0  0  0
   -2.0692   -0.2257    1.5337 H   0  0  0  0  0  0  0  0  0  0  0  0
   -3.9248   -0.3747   -0.1647 H   0  0  0  0  0  0  0  0  0  0  0  0
   -3.6448    2.1329    1.7596 H   0  0  0  0  0  0  0  0  0  0  0  0
   -2.8120    2.5673   -0.4885 H   0  0  0  0  0  0  0  0  0  0  0  0
   -4.4245    1.8356   -1.2734 H   0  0  0  0  0  0  0  0  0  0  0  0
    0.5435    0.9114    0.2056 H   0  0  0  0  0  0  0  0  0  0  0  0
   -1.3395    0.2809   -1.2977 H   0  0  0  0  0  0  0  0  0  0  0  0
   -1.5028   -1.3057   -0.4569 H   0  0  0  0  0  0  0  0  0  0  0  0
    2.1276   -0.0719   -1.1376 H   0  0  0  0  0  0  0  0  0  0  0  0
    0.6990   -0.5479   -2.0910 H   0  0  0  0  0  0  0  0  0  0  0  0
   -0.0801   -1.7982    1.4872 H   0  0  0  0  0  0  0  0  0  0  0  0
    0.3911   -0.2364    2.2422 H   0  0  0  0  0  0  0  0  0  0  0  0
    0.6477   -2.7581   -0.8998 H   0  0  0  0  0  0  0  0  0  0  0  0
    2.1545   -2.5046   -1.7913 H   0  0  0  0  0  0  0  0  0  0  0  0
    2.6953   -0.5098    1.3422 H   0  0  0  0  0  0  0  0  0  0  0  0
    2.2250   -1.8708    2.4205 H   0  0  0  0  0  0  0  0  0  0  0  0
   -6.0414    0.2652   -0.7457 H   0  0  0  0  0  0  0  0  0  0  0  0
   -5.7444    2.4176    2.9981 H   0  0  0  0  0  0  0  0  0  0  0  0
    4.1443   -3.0552    1.1796 H   0  0  0  0  0  0  0  0  0  0  0  0
    3.8422   -3.5889   -0.4766 H   0  0  0  0  0  0  0  0  0  0  0  0
   -8.4420   -0.0221   -0.3739 H   0  0  0  0  0  0  0  0  0  0  0  0
   -8.1638    2.1110    3.3382 H   0  0  0  0  0  0  0  0  0  0  0  0
   -9.5189    0.8934    1.6595 H   0  0  0  0  0  0  0  0  0  0  0  0
    5.1123   -0.8276    1.6422 H   0  0  0  0  0  0  0  0  0  0  0  0
    4.3158   -2.0620   -2.4125 H   0  0  0  0  0  0  0  0  0  0  0  0
    6.4541    1.0402    0.8118 H   0  0  0  0  0  0  0  0  0  0  0  0
    5.6444   -0.1931   -3.2479 H   0  0  0  0  0  0  0  0  0  0  0  0
  1 27  1  0
  2 27  2  0
  5  3  1  0
  3  9  1  0
  4 13  1  0
  4 14  1  0
  4 17  1  0
  5  6  1  0
  5  7  1  0
  6  7  1  0
  6 10  1  0
  8  9  1  0
  8 11  1  0
  8 12  1  0
 10 15  2  0
 10 16  1  0
 11 13  1  0
 12 14  1  0
 15 18  1  0
 16 19  2  0
 17 20  1  0
 18 21  2  0
 19 21  1  0
 20 22  2  0
 20 23  1  0
 22 24  1  0
 23 25  2  0
 24 26  2  0
 25 26  1  0
 26 27  1  0
  1 28  1  0
  3 29  1  0
  5 30  1  6
  6 31  1  1
  7 32  1  0
  7 33  1  0
  8 34  1  0
  9 35  1  0
  9 36  1  0
 11 37  1  0
 11 38  1  0
 12 39  1  0
 12 40  1  0
 13 41  1  0
 13 42  1  0
 14 43  1  0
 14 44  1  0
 15 45  1  0
 16 46  1  0
 17 47  1  0
 17 48  1  0
 18 49  1  0
 19 50  1  0
 21 51  1  0
 22 52  1  0
 23 53  1  0
 24 54  1  0
 25 55  1  0
M  END
>  <PUBCHEM_COMPOUND_CID>  (1) 
66571643

>  <PUBCHEM_COMPOUND_CANONICALIZED>  (1) 
1

>  <PUBCHEM_CACTVS_COMPLEXITY>  (1) 
475

>  <PUBCHEM_CACTVS_HBOND_ACCEPTOR>  (1) 
4

>  <PUBCHEM_CACTVS_HBOND_DONOR>  (1) 
2

>  <PUBCHEM_CACTVS_ROTATABLE_BOND>  (1) 
7

>  <PUBCHEM_CACTVS_SUBSKEYS>  (1) 
AAADceB7MAAAAAAAAAAAAAAAGAAAAAAAAAA8YIAAAAAAAAABQAAAHgAQCAAADSjBmAQwCIPAAgCIAiDSCACCAAAkAAAIiIEIDMgIJjKAlRGEcQhk0AGImYeYyPCOwAAAAAAAAACAAAAAAAAAAAAAAAAAAA==

>  <PUBCHEM_IUPAC_OPENEYE_NAME>  (1) 
4-[[4-[[[(1R,2S)-2-phenylcyclopropyl]amino]methyl]-1-piperidyl]methyl]benzoic acid

>  <PUBCHEM_IUPAC_CAS_NAME>  (1) 
4-[[4-[[[(1R,2S)-2-phenylcyclopropyl]amino]methyl]-1-piperidinyl]methyl]benzoic acid

>  <PUBCHEM_IUPAC_NAME_MARKUP>  (1) 
4-[[4-[[[(1<I>R</I>,2<I>S</I>)-2-phenylcyclopropyl]amino]methyl]piperidin-1-yl]methyl]benzoic acid

>  <PUBCHEM_IUPAC_NAME>  (1) 
4-[[4-[[[(1R,2S)-2-phenylcyclopropyl]amino]methyl]piperidin-1-yl]methyl]benzoic acid

>  <PUBCHEM_IUPAC_SYSTEMATIC_NAME>  (1) 
4-[[4-[[[(1R,2S)-2-phenylcyclopropyl]amino]methyl]piperidin-1-yl]methyl]benzoic acid

>  <PUBCHEM_IUPAC_TRADITIONAL_NAME>  (1) 
4-[[4-[[[(1R,2S)-2-phenylcyclopropyl]amino]methyl]piperidino]methyl]benzoic acid

>  <PUBCHEM_IUPAC_INCHI>  (1) 
InChI=1S/C23H28N2O2/c26-23(27)20-8-6-18(7-9-20)16-25-12-10-17(11-13-25)15-24-22-14-21(22)19-4-2-1-3-5-19/h1-9,17,21-22,24H,10-16H2,(H,26,27)/t21-,22+/m0/s1

>  <PUBCHEM_IUPAC_INCHIKEY>  (1) 
LRULVYSBRWUVGR-FCHUYYIVSA-N

>  <PUBCHEM_XLOGP3_AA>  (1) 
1.3

>  <PUBCHEM_EXACT_MASS>  (1) 
364.215078140

>  <PUBCHEM_MOLECULAR_FORMULA>  (1) 
C23H28N2O2

>  <PUBCHEM_MOLECULAR_WEIGHT>  (1) 
364.5

>  <PUBCHEM_OPENEYE_CAN_SMILES>  (1) 
C1CN(CCC1CNC2CC2C3=CC=CC=C3)CC4=CC=C(C=C4)C(=O)O

>  <PUBCHEM_OPENEYE_ISO_SMILES>  (1) 
C1CN(CCC1CN[C@@H]2C[C@H]2C3=CC=CC=C3)CC4=CC=C(C=C4)C(=O)O

>  <PUBCHEM_CACTVS_TPSA>  (1) 
52.6

>  <PUBCHEM_MONOISOTOPIC_WEIGHT>  (1) 
364.215078140

>  <PUBCHEM_TOTAL_CHARGE>  (1) 
0

>  <PUBCHEM_HEAVY_ATOM_COUNT>  (1) 
27

>  <PUBCHEM_ATOM_DEF_STEREO_COUNT>  (1) 
2

>  <PUBCHEM_ATOM_UDEF_STEREO_COUNT>  (1) 
0

>  <PUBCHEM_BOND_DEF_STEREO_COUNT>  (1) 
0

>  <PUBCHEM_BOND_UDEF_STEREO_COUNT>  (1) 
0

>  <PUBCHEM_ISOTOPIC_ATOM_COUNT>  (1) 
0

>  <PUBCHEM_COMPONENT_COUNT>  (1) 
1

>  <PUBCHEM_CACTVS_TAUTO_COUNT>  (1) 
-1

>  <PUBCHEM_COORDINATE_TYPE>  (1) 
1
5
255

>  <PUBCHEM_BONDANNOTATIONS>  (1) 
10  15  8
10  16  8
15  18  8
16  19  8
18  21  8
19  21  8
20  22  8
20  23  8
22  24  8
23  25  8
24  26  8
25  26  8
5  3  5
6  10  6

$$$$
