REMARK  Name = ligands/gsk2879552_optimized.pdb
REMARK  8 active torsions:
REMARK  status: ('A' for Active; 'I' for Inactive)
REMARK    1  A    between atoms: O_1  and  C_27
REMARK    2  A    between atoms: N_3  and  C_5
REMARK    3  A    between atoms: N_3  and  C_9
REMARK    4  A    between atoms: N_4  and  C_17
REMARK    5  A    between atoms: C_6  and  C_10
REMARK    6  A    between atoms: C_8  and  C_9
REMARK    7  A    between atoms: C_17  and  C_20
REMARK    8  A    between atoms: C_26  and  C_27
REMARK                            x       y       z     vdW  Elec       q    Type
REMARK                         _______ _______ _______ _____ _____    ______ ____
ROOT
ATOM      1  N   UNL     1      -1.081   1.135  10.532  0.00  0.00    +0.000 NA
ATOM      2  C   UNL     1      -3.797   2.265  10.315  0.00  0.00    +0.000 C 
ATOM      3  C   UNL     1      -3.461   0.816   9.928  0.00  0.00    +0.000 C 
ATOM      4  C   UNL     1      -2.523   3.118  10.232  0.00  0.00    +0.000 C 
ATOM      5  C   UNL     1      -2.263   0.278  10.716  0.00  0.00    +0.000 C 
ATOM      6  C   UNL     1      -1.367   2.495  11.014  0.00  0.00    +0.000 C 
ENDROOT
BRANCH   2   7
ATOM      7  C   UNL     1      -4.888   2.890   9.425  0.00  0.00    +0.000 C 
BRANCH   7   8
ATOM      8  N   UNL     1      -6.158   2.164   9.489  0.00  0.00    +0.000 NA
ATOM      9  H   UNL     1      -6.001   1.197   9.204  0.00  0.00    +0.000 HD
BRANCH   8  10
ATOM     10  C   UNL     1      -7.179   2.761   8.611  0.00  0.00    +0.000 C 
ATOM     11  C   UNL     1      -8.548   2.107   8.582  0.00  0.00    +0.000 C 
ATOM     12  C   UNL     1      -8.362   3.473   9.190  0.00  0.00    +0.000 C 
BRANCH  11  13
ATOM     13  C   UNL     1      -9.210   1.883   7.244  0.00  0.00    +0.000 A 
ATOM     14  C   UNL     1      -8.586   1.089   6.265  0.00  0.00    +0.000 A 
ATOM     15  C   UNL     1     -10.487   2.385   6.949  0.00  0.00    +0.000 A 
ATOM     16  C   UNL     1      -9.213   0.792   5.054  0.00  0.00    +0.000 A 
ATOM     17  C   UNL     1     -11.120   2.090   5.737  0.00  0.00    +0.000 A 
ATOM     18  C   UNL     1     -10.484   1.286   4.792  0.00  0.00    +0.000 A 
ENDBRANCH  11  13
ENDBRANCH   8  10
ENDBRANCH   7   8
ENDBRANCH   2   7
BRANCH   1  19
ATOM     19  C   UNL     1       0.106   0.596  11.224  0.00  0.00    +0.000 C 
BRANCH  19  20
ATOM     20  C   UNL     1       0.565  -0.748  10.689  0.00  0.00    +0.000 A 
ATOM     21  C   UNL     1       0.925  -0.899   9.340  0.00  0.00    +0.000 A 
ATOM     22  C   UNL     1       0.625  -1.865  11.536  0.00  0.00    +0.000 A 
ATOM     23  C   UNL     1       1.296  -2.149   8.838  0.00  0.00    +0.000 A 
ATOM     24  C   UNL     1       1.001  -3.114  11.038  0.00  0.00    +0.000 A 
ATOM     25  C   UNL     1       1.320  -3.263   9.685  0.00  0.00    +0.000 A 
BRANCH  25  27
ATOM     26  O   UNL     1       2.039  -5.553   9.873  0.00  0.00    +0.000 OA
ATOM     27  C   UNL     1       1.672  -4.614   9.190  0.00  0.00    +0.000 C 
BRANCH  27  28
ATOM     28  O   UNL     1       1.481  -4.739   7.866  0.00  0.00    +0.000 OA
ATOM     29  H   UNL     1       1.685  -5.680   7.686  0.00  0.00    +0.000 HD
ENDBRANCH  27  28
ENDBRANCH  25  27
ENDBRANCH  19  20
ENDBRANCH   1  19
TORSDOF 8
