REMARK  Name = ligands/ory1001_optimized.pdb
REMARK  4 active torsions:
REMARK  status: ('A' for Active; 'I' for Inactive)
REMARK    1  A    between atoms: N_1  and  C_3
REMARK    2  A    between atoms: N_1  and  C_6
REMARK    3  A    between atoms: N_2  and  C_12
REMARK    4  A    between atoms: C_4  and  C_9
REMARK                            x       y       z     vdW  Elec       q    Type
REMARK                         _______ _______ _______ _____ _____    ______ ____
ROOT
ATOM      1  N   UNL     1      -5.782   0.240   0.627  0.00  0.00    +0.000 NA
ATOM      2  H   UNL     1      -6.466   0.663   1.257  0.00  0.00    +0.000 HD
ENDROOT
BRANCH   1   3
ATOM      3  C   UNL     1      -4.433   0.641   1.059  0.00  0.00    +0.000 C 
ATOM      4  C   UNL     1      -4.378   2.172   1.228  0.00  0.00    +0.000 C 
ATOM      5  C   UNL     1      -3.361   0.170   0.062  0.00  0.00    +0.000 C 
ATOM      6  C   UNL     1      -4.398   2.931  -0.103  0.00  0.00    +0.000 C 
ATOM      7  C   UNL     1      -3.445   0.910  -1.273  0.00  0.00    +0.000 C 
ATOM      8  C   UNL     1      -3.343   2.430  -1.099  0.00  0.00    +0.000 C 
BRANCH   8   9
ATOM      9  N   UNL     1      -1.996   2.818  -0.665  0.00  0.00    +0.000 NA
ATOM     10  H   UNL     1      -1.306   2.368  -1.266  0.00  0.00    +0.000 HD
ATOM     11  H   UNL     1      -1.809   2.476   0.275  0.00  0.00    +0.000 HD
ENDBRANCH   8   9
ENDBRANCH   1   3
BRANCH   1  12
ATOM     12  C   UNL     1      -5.969  -1.221   0.623  0.00  0.00    +0.000 C 
ATOM     13  C   UNL     1      -7.311  -1.776   0.190  0.00  0.00    +0.000 C 
ATOM     14  C   UNL     1      -6.096  -1.953  -0.680  0.00  0.00    +0.000 C 
BRANCH  13  15
ATOM     15  C   UNL     1      -7.907  -2.906   0.992  0.00  0.00    +0.000 A 
ATOM     16  C   UNL     1      -8.163  -2.748   2.364  0.00  0.00    +0.000 A 
ATOM     17  C   UNL     1      -8.287  -4.123   0.402  0.00  0.00    +0.000 A 
ATOM     18  C   UNL     1      -8.786  -3.747   3.117  0.00  0.00    +0.000 A 
ATOM     19  C   UNL     1      -8.911  -5.125   1.148  0.00  0.00    +0.000 A 
ATOM     20  C   UNL     1      -9.169  -4.933   2.502  0.00  0.00    +0.000 A 
ENDBRANCH  13  15
ENDBRANCH   1  12
TORSDOF 4
