REMARK SMILES Cc1cc2c(cc1C)N1[C@H](O)C[C@H](c3ccccc3)[C@]13C(=O)NC(=O)N[C@@H]3N2C[C@H](O)[C@H](O)[C@H](O)CO[P@@](=O)(O)O[P@@](=O)(O)OC[C@H]1O[C@@H](n2cnc3c(N)ncnc32)[C@H](O)[C@@H]1O
REMARK SMILES IDX 38 1 39 2 37 3 36 4 34 5 32 6 30 7 29 8 28 9 22 10 21 11
REMARK SMILES IDX 23 12 20 13 24 14 27 16 13 17 9 18 25 19 26 20 12 21 10 22
REMARK SMILES IDX 5 23 4 25 6 26 3 27 7 28 2 29 8 30 1 31 14 32 15 33 19 34
REMARK SMILES IDX 16 35 18 36 17 37 11 38 31 40 33 42 35 44 40 46 41 48 42 49
REMARK SMILES IDX 43 50 44 51 45 53 46 54 47 55 48 56 62 57 49 58 60 59 63 60
REMARK SMILES IDX 50 62 51 63 59 64 52 65 53 66 58 67 54 68 57 69 56 70 55 71
REMARK SMILES IDX 61 74
REMARK H PARENT 23 15 26 24 11 39 31 41 33 43 35 45 40 47 44 52 63 61 55 72
REMARK H PARENT 55 73 61 75
REMARK Flexibility Score: inf
ROOT
ATOM      1  P   UNL     1       3.662  -0.051  -2.533  1.00  0.00     0.481 P 
ATOM      2  O   UNL     1       4.204  -0.723  -3.775  1.00  0.00    -0.228 OA
ENDROOT
BRANCH   1   3
ATOM      3  O   UNL     1       1.962   0.034  -2.723  1.00  0.00    -0.284 OA
BRANCH   3   4
ATOM      4  C   UNL     1       1.329  -0.133  -1.480  1.00  0.00     0.208 C 
BRANCH   4   5
ATOM      5  C   UNL     1      -0.197  -0.136  -1.674  1.00  0.00     0.172 C 
BRANCH   5   6
ATOM      6  C   UNL     1      -0.938  -0.408  -0.333  1.00  0.00     0.175 C 
BRANCH   6   7
ATOM      7  C   UNL     1      -2.488  -0.321  -0.474  1.00  0.00     0.165 C 
BRANCH   7   8
ATOM      8  C   UNL     1      -3.184  -0.513   0.894  1.00  0.00     0.153 C 
BRANCH   8   9
ATOM      9  N   UNL     1      -4.659  -0.510   0.770  1.00  0.00    -0.344 N 
ATOM     10  O   UNL     1      -7.728   0.176  -1.562  1.00  0.00    -0.272 OA
ATOM     11  C   UNL     1      -6.864   0.812  -0.898  1.00  0.00     0.258 C 
ATOM     12  N   UNL     1      -5.936   1.663  -1.577  1.00  0.00    -0.276 N 
ATOM     13  C   UNL     1      -6.848   0.745   0.624  1.00  0.00     0.168 C 
ATOM     14  C   UNL     1      -4.894   2.293  -0.833  1.00  0.00     0.323 C 
ATOM     15  H   UNL     1      -6.027   1.830  -2.604  1.00  0.00     0.174 HD
ATOM     16  C   UNL     1      -5.367   0.754   1.107  1.00  0.00     0.217 C 
ATOM     17  C   UNL     1      -7.670   1.889   1.303  1.00  0.00     0.063 C 
ATOM     18  N   UNL     1      -7.473  -0.488   1.074  1.00  0.00    -0.326 N 
ATOM     19  O   UNL     1      -4.176   3.177  -1.371  1.00  0.00    -0.248 OA
ATOM     20  N   UNL     1      -4.670   1.913   0.530  1.00  0.00    -0.315 N 
ATOM     21  C   UNL     1      -8.581   1.198   2.334  1.00  0.00     0.066 C 
ATOM     22  C   UNL     1      -8.572  -0.294   2.007  1.00  0.00     0.213 C 
ATOM     23  C   UNL     1      -6.811  -1.746   0.890  1.00  0.00     0.064 A 
ATOM     24  H   UNL     1      -3.991   2.455   1.109  1.00  0.00     0.167 HD
ATOM     25  C   UNL     1      -5.412  -1.764   0.712  1.00  0.00     0.063 A 
ATOM     26  C   UNL     1      -7.546  -2.938   0.874  1.00  0.00     0.032 A 
ATOM     27  C   UNL     1      -4.784  -3.014   0.508  1.00  0.00     0.031 A 
ATOM     28  C   UNL     1      -6.916  -4.173   0.676  1.00  0.00    -0.046 A 
ATOM     29  C   UNL     1      -5.521  -4.208   0.468  1.00  0.00    -0.046 A 
ATOM     30  C   UNL     1      -7.745  -5.430   0.639  1.00  0.00     0.044 C 
ATOM     31  C   UNL     1      -4.795  -5.511   0.249  1.00  0.00     0.044 C 
BRANCH  17  32
ATOM     32  C   UNL     1      -8.450   2.784   0.341  1.00  0.00    -0.042 A 
ATOM     33  C   UNL     1      -9.617   2.335  -0.311  1.00  0.00     0.004 A 
ATOM     34  C   UNL     1      -7.963   4.071   0.043  1.00  0.00     0.004 A 
ATOM     35  C   UNL     1     -10.289   3.163  -1.216  1.00  0.00     0.000 A 
ATOM     36  C   UNL     1      -8.638   4.894  -0.863  1.00  0.00     0.000 A 
ATOM     37  C   UNL     1      -9.803   4.444  -1.489  1.00  0.00     0.000 A 
ENDBRANCH  17  32
BRANCH  22  38
ATOM     38  O   UNL     1      -9.778  -0.675   1.402  1.00  0.00    -0.374 OA
ATOM     39  H   UNL     1     -10.436  -0.771   2.136  1.00  0.00     0.213 HD
ENDBRANCH  22  38
ENDBRANCH   8   9
ENDBRANCH   7   8
BRANCH   7  40
ATOM     40  O   UNL     1      -2.986  -1.242  -1.416  1.00  0.00    -0.388 OA
ATOM     41  H   UNL     1      -2.559  -2.119  -1.239  1.00  0.00     0.211 HD
ENDBRANCH   7  40
ENDBRANCH   6   7
BRANCH   6  42
ATOM     42  O   UNL     1      -0.491   0.489   0.655  1.00  0.00    -0.388 OA
ATOM     43  H   UNL     1      -0.720   1.406   0.350  1.00  0.00     0.211 HD
ENDBRANCH   6  42
ENDBRANCH   5   6
BRANCH   5  44
ATOM     44  O   UNL     1      -0.558  -1.076  -2.656  1.00  0.00    -0.388 OA
ATOM     45  H   UNL     1      -0.267  -1.971  -2.336  1.00  0.00     0.211 HD
ENDBRANCH   5  44
ENDBRANCH   4   5
ENDBRANCH   3   4
ENDBRANCH   1   3
BRANCH   1  46
ATOM     46  O   UNL     1       4.310   1.515  -2.495  1.00  0.00    -0.302 OA
ATOM     47  H   UNL     1       5.290   1.390  -2.576  1.00  0.00     0.223 HD
ENDBRANCH   1  46
BRANCH   1  48
ATOM     48  O   UNL     1       4.145  -1.011  -1.199  1.00  0.00    -0.185 OA
BRANCH  48  49
ATOM     49  P   UNL     1       4.232  -0.092   0.247  1.00  0.00     0.481 P 
ATOM     50  O   UNL     1       4.163   1.405   0.045  1.00  0.00    -0.228 OA
BRANCH  49  51
ATOM     51  O   UNL     1       2.947  -0.546   1.248  1.00  0.00    -0.302 OA
ATOM     52  H   UNL     1       3.062  -1.518   1.385  1.00  0.00     0.223 HD
ENDBRANCH  49  51
BRANCH  49  53
ATOM     53  O   UNL     1       5.677  -0.469   1.066  1.00  0.00    -0.284 OA
BRANCH  53  54
ATOM     54  C   UNL     1       6.751  -0.328   0.165  1.00  0.00     0.208 C 
BRANCH  54  55
ATOM     55  C   UNL     1       8.061  -0.631   0.898  1.00  0.00     0.179 C 
ATOM     56  O   UNL     1       9.128  -0.630  -0.025  1.00  0.00    -0.347 OA
ATOM     57  C   UNL     1       8.367   0.396   2.008  1.00  0.00     0.179 C 
ATOM     58  C   UNL     1      10.250  -0.134   0.663  1.00  0.00     0.253 C 
ATOM     59  C   UNL     1       9.759   0.900   1.665  1.00  0.00     0.195 C 
BRANCH  57  60
ATOM     60  O   UNL     1       8.301  -0.196   3.284  1.00  0.00    -0.387 OA
ATOM     61  H   UNL     1       8.945  -0.951   3.312  1.00  0.00     0.211 HD
ENDBRANCH  57  60
BRANCH  58  62
ATOM     62  N   UNL     1      11.197   0.461  -0.283  1.00  0.00    -0.285 N 
ATOM     63  C   UNL     1      10.931   1.286  -1.329  1.00  0.00     0.204 A 
ATOM     64  C   UNL     1      12.533   0.381  -0.272  1.00  0.00     0.167 A 
ATOM     65  N   UNL     1      12.049   1.712  -1.981  1.00  0.00    -0.231 NA
ATOM     66  C   UNL     1      13.039   1.117  -1.288  1.00  0.00     0.150 A 
ATOM     67  N   UNL     1      13.314  -0.313   0.589  1.00  0.00    -0.216 NA
ATOM     68  C   UNL     1      14.415   1.180  -1.478  1.00  0.00     0.155 A 
ATOM     69  C   UNL     1      14.668  -0.259   0.411  1.00  0.00     0.226 A 
ATOM     70  N   UNL     1      15.207   0.481  -0.611  1.00  0.00    -0.217 NA
BRANCH  68  71
ATOM     71  N   UNL     1      14.996   1.940  -2.537  1.00  0.00    -0.382 N 
ATOM     72  H   UNL     1      16.032   1.963  -2.662  1.00  0.00     0.158 HD
ATOM     73  H   UNL     1      14.397   2.465  -3.212  1.00  0.00     0.158 HD
ENDBRANCH  68  71
ENDBRANCH  58  62
BRANCH  59  74
ATOM     74  O   UNL     1      10.595   0.965   2.793  1.00  0.00    -0.386 OA
ATOM     75  H   UNL     1      11.419   1.435   2.502  1.00  0.00     0.211 HD
ENDBRANCH  59  74
ENDBRANCH  54  55
ENDBRANCH  53  54
ENDBRANCH  49  53
ENDBRANCH  48  49
ENDBRANCH   1  48
TORSDOF 23
