REMARK SMILES O=C(O)c1ccc(CN2CCC(CN[C@@H]3C[C@H]3c3ccccc3)CC2)cc1
REMARK SMILES IDX 9 1 12 2 11 3 24 4 10 5 25 6 8 7 7 8 4 9 5 10 27 11 6 12
REMARK SMILES IDX 26 13 2 14 1 15 3 16 13 18 14 19 15 21 17 22 16 23 18 24
REMARK SMILES IDX 19 25 23 26 20 27 22 28 21 29
REMARK H PARENT 3 17 14 20
REMARK Flexibility Score: inf
ROOT
ATOM      1  N   UNL     1       2.304  -2.385   0.361  1.00  0.00    -0.299 NA
ATOM      2  C   UNL     1       0.297  -0.164   0.054  1.00  0.00     0.005 C 
ATOM      3  C   UNL     1       1.195  -0.676  -1.104  1.00  0.00     0.020 C 
ATOM      4  C   UNL     1       0.585  -0.912   1.381  1.00  0.00     0.020 C 
ATOM      5  C   UNL     1       1.578  -2.150  -0.912  1.00  0.00     0.085 C 
ATOM      6  C   UNL     1       2.036  -1.398   1.433  1.00  0.00     0.085 C 
ENDROOT
BRANCH   1   7
ATOM      7  C   UNL     1       3.739  -2.714   0.202  1.00  0.00     0.120 C 
BRANCH   7   8
ATOM      8  C   UNL     1       4.577  -1.564  -0.321  1.00  0.00    -0.034 A 
ATOM      9  C   UNL     1       6.144   0.579  -1.284  1.00  0.00     0.059 A 
ATOM     10  C   UNL     1       5.984   0.377   0.097  1.00  0.00     0.016 A 
ATOM     11  C   UNL     1       5.528  -0.314  -2.178  1.00  0.00     0.016 A 
ATOM     12  C   UNL     1       5.214  -0.688   0.573  1.00  0.00     0.006 A 
ATOM     13  C   UNL     1       4.758  -1.378  -1.701  1.00  0.00     0.006 A 
BRANCH   9  14
ATOM     14  C   UNL     1       6.958   1.709  -1.784  1.00  0.00     0.335 C 
ATOM     15  O   UNL     1       7.110   1.886  -3.023  1.00  0.00    -0.246 OA
BRANCH  14  16
ATOM     16  O   UNL     1       7.562   2.589  -0.890  1.00  0.00    -0.478 OA
ATOM     17  H   UNL     1       8.121   3.366  -1.222  1.00  0.00     0.297 HD
ENDBRANCH  14  16
ENDBRANCH   9  14
ENDBRANCH   7   8
ENDBRANCH   1   7
BRANCH   2  18
ATOM     18  C   UNL     1      -1.197  -0.242  -0.325  1.00  0.00     0.085 C 
BRANCH  18  19
ATOM     19  N   UNL     1      -2.027   0.404   0.699  1.00  0.00    -0.313 NA
ATOM     20  H   UNL     1      -2.069  -0.226   1.534  1.00  0.00     0.123 HD
BRANCH  19  21
ATOM     21  C   UNL     1      -3.399   0.530   0.208  1.00  0.00     0.061 C 
ATOM     22  C   UNL     1      -4.194   1.592   0.958  1.00  0.00     0.038 C 
ATOM     23  C   UNL     1      -3.682   1.877  -0.451  1.00  0.00     0.029 C 
BRANCH  22  24
ATOM     24  C   UNL     1      -5.690   1.369   1.104  1.00  0.00    -0.043 A 
ATOM     25  C   UNL     1      -6.475   0.677   0.155  1.00  0.00     0.004 A 
ATOM     26  C   UNL     1      -6.319   1.882   2.252  1.00  0.00     0.004 A 
ATOM     27  C   UNL     1      -7.848   0.509   0.359  1.00  0.00     0.000 A 
ATOM     28  C   UNL     1      -7.692   1.711   2.450  1.00  0.00     0.000 A 
ATOM     29  C   UNL     1      -8.456   1.025   1.504  1.00  0.00     0.000 A 
ENDBRANCH  22  24
ENDBRANCH  19  21
ENDBRANCH  18  19
ENDBRANCH   2  18
TORSDOF 8
