REMARK SMILES N[C@H]1CC[C@H](N[C@@H]2C[C@H]2c2ccccc2)CC1
REMARK SMILES IDX 6 1 7 3 9 4 8 5 10 6 11 7 15 8 12 9 14 10 13 11 5 12 4 13
REMARK SMILES IDX 16 14 3 15 17 16 2 17 1 18
REMARK H PARENT 6 2 1 19 1 20
REMARK Flexibility Score: inf
ROOT
ATOM      1  N   UNL     1      -0.403  -1.804   0.434  1.00  0.00    -0.311 NA
ATOM      2  H   UNL     1      -0.707  -1.555   1.405  1.00  0.00     0.123 HD
ENDROOT
BRANCH   1   3
ATOM      3  C   UNL     1       1.025  -1.522   0.210  1.00  0.00     0.062 C 
ATOM      4  C   UNL     1       1.668  -0.557   1.206  1.00  0.00     0.038 C 
ATOM      5  C   UNL     1       1.919  -2.058   1.327  1.00  0.00     0.029 C 
BRANCH   4   6
ATOM      6  C   UNL     1       2.798   0.304   0.671  1.00  0.00    -0.043 A 
ATOM      7  C   UNL     1       2.916   1.612   1.171  1.00  0.00     0.004 A 
ATOM      8  C   UNL     1       3.721  -0.132  -0.306  1.00  0.00     0.004 A 
ATOM      9  C   UNL     1       3.928   2.462   0.716  1.00  0.00     0.000 A 
ATOM     10  C   UNL     1       4.731   0.723  -0.758  1.00  0.00     0.000 A 
ATOM     11  C   UNL     1       4.835   2.018  -0.247  1.00  0.00     0.000 A 
ENDBRANCH   4   6
ENDBRANCH   1   3
BRANCH   1  12
ATOM     12  C   UNL     1      -1.236  -1.082  -0.543  1.00  0.00     0.054 C 
ATOM     13  C   UNL     1      -1.188   0.454  -0.306  1.00  0.00     0.020 C 
ATOM     14  C   UNL     1      -2.680  -1.645  -0.511  1.00  0.00     0.020 C 
ATOM     15  C   UNL     1      -2.449   1.142  -0.835  1.00  0.00     0.020 C 
ATOM     16  C   UNL     1      -3.602  -0.819   0.394  1.00  0.00     0.020 C 
ATOM     17  C   UNL     1      -3.714   0.652  -0.082  1.00  0.00     0.050 C 
BRANCH  17  18
ATOM     18  N   UNL     1      -4.911   0.827  -0.907  1.00  0.00    -0.328 NA
ATOM     19  H   UNL     1      -4.807   0.277  -1.791  1.00  0.00     0.119 HD
ATOM     20  H   UNL     1      -4.991   1.836  -1.173  1.00  0.00     0.119 HD
ENDBRANCH  17  18
ENDBRANCH   1  12
TORSDOF 4
